/*--------------------------------*- C++ -*----------------------------------*\
  =========                 |
  \\      /  F ield         | OpenFOAM: The Open Source CFD Toolbox
   \\    /   O peration     | Website:  https://openfoam.org
    \\  /    A nd           | Version:  12
     \\/     M anipulation  |
\*---------------------------------------------------------------------------*/
FoamFile
{
    format      ascii;
    class       volScalarField;
    location    "0";
    object      k;
}
// * * * * * * * * * * * * * * * * * * * * * * * * * * * * * * * * * * * * * //

dimensions      [0 2 -2 0 0 0 0];

internalField   uniform 0.5;

boundaryField
{
    inlet
    {
        type            fixedValue;
        value           uniform 0.5;
    }
    outlet
    {
        type            zeroGradient;
    }
	
	front
    {
        type            empty;
    }
	back
    {
        type            empty;
    }

    upper_wall
    {
        type            kqRWallFunction;
        value           uniform 0.5;
    }
    lower_wall
    {
        type            kqRWallFunction;
        value           uniform 0.5;
    }
	cylinder
    {
        type            kqRWallFunction;
        value           uniform 0.5;
    }
    
    internal_1.1
    {
        type            cyclic;
        mappedPatch     internal_2.1;
    }
    internal_2.1
    {
        type            cyclic;
        mappedPatch     internal_1.1;
    }
    internal_2.2
    {
        type            cyclic;
        mappedPatch     internal_3.1;
    }
    internal_3.1
    {
        type            cyclic;
        mappedPatch     internal_2.2;
    }
}


// ************************************************************************* //
